Version 4
SHEET 1 1524 1028
WIRE 32 -176 -16 -176
WIRE 176 -176 112 -176
WIRE 544 -128 432 -128
WIRE 752 -128 608 -128
WIRE 80 -80 48 -80
WIRE 112 -80 80 -80
WIRE 48 -32 48 -80
WIRE -208 -16 -320 -16
WIRE -112 -16 -144 -16
WIRE -16 -16 -16 -176
WIRE -16 -16 -32 -16
WIRE 16 -16 -16 -16
WIRE 176 0 176 -176
WIRE 176 0 80 0
WIRE 272 0 176 0
WIRE 320 0 272 0
WIRE 432 0 432 -128
WIRE 432 0 400 0
WIRE 464 0 432 0
WIRE 576 0 544 0
WIRE 608 0 576 0
WIRE 752 0 752 -128
WIRE 752 0 688 0
WIRE 848 0 752 0
WIRE 1008 0 928 0
WIRE 16 16 -16 16
WIRE -320 64 -320 -16
WIRE -16 96 -16 16
WIRE 48 96 48 32
WIRE 80 96 48 96
WIRE 112 96 80 96
WIRE 576 112 576 0
WIRE 608 112 576 112
WIRE 752 112 688 112
WIRE -320 192 -320 144
WIRE 560 208 432 208
WIRE 720 208 624 208
WIRE 272 304 272 0
WIRE 320 304 272 304
WIRE 432 304 432 208
WIRE 432 304 400 304
WIRE 464 304 432 304
WIRE 576 304 544 304
WIRE 608 304 576 304
WIRE 720 304 720 208
WIRE 720 304 688 304
WIRE 832 304 720 304
WIRE 1008 304 1008 0
WIRE 1008 304 912 304
WIRE 576 432 576 304
WIRE 624 432 576 432
WIRE 752 432 752 112
WIRE 752 432 688 432
WIRE 272 592 272 304
WIRE 320 592 272 592
WIRE 464 592 400 592
WIRE 576 592 544 592
WIRE 608 592 576 592
WIRE 816 592 688 592
WIRE 1008 592 1008 304
WIRE 1008 592 896 592
WIRE -288 608 -320 608
WIRE -240 608 -288 608
WIRE -240 656 -240 608
WIRE 928 704 896 704
WIRE 960 704 928 704
WIRE -240 752 -240 736
WIRE -128 752 -240 752
WIRE 896 768 896 704
WIRE -240 784 -240 752
WIRE 576 784 576 592
WIRE 624 784 576 784
WIRE 752 784 752 432
WIRE 752 784 688 784
WIRE 864 784 752 784
WIRE -128 800 -128 752
WIRE 1008 800 1008 592
WIRE 1008 800 928 800
WIRE 1088 800 1008 800
WIRE 864 816 832 816
WIRE 1088 832 1088 800
WIRE 832 848 832 816
WIRE 896 880 896 832
WIRE 928 880 896 880
WIRE 960 880 928 880
WIRE -288 912 -320 912
WIRE -240 912 -240 864
WIRE -240 912 -288 912
WIRE 1088 928 1088 912
FLAG -128 800 0
FLAG -288 608 P12V
FLAG -288 912 M12V
FLAG -320 192 0
FLAG 832 848 0
FLAG 1088 928 0
FLAG 928 704 P12V
FLAG 928 880 M12V
FLAG 80 -80 P12V
FLAG 80 96 M12V
FLAG -16 96 0
SYMBOL voltage -240 640 R0
WINDOW 123 0 0 Left 0
WINDOW 39 0 0 Left 0
SYMATTR InstName V1
SYMATTR Value 12
SYMBOL voltage -240 768 R0
WINDOW 123 0 0 Left 0
WINDOW 39 0 0 Left 0
SYMATTR InstName V2
SYMATTR Value 12
SYMBOL voltage -320 48 R0
WINDOW 123 24 124 Left 2
WINDOW 39 0 0 Left 0
WINDOW 3 24 152 Left 2
SYMATTR Value2 AC 1
SYMATTR Value ""
SYMATTR InstName V3
SYMBOL res 416 -16 R90
WINDOW 0 0 56 VBottom 2
WINDOW 3 32 56 VTop 2
SYMATTR InstName R3
SYMATTR Value 10k
SYMBOL res 560 -16 R90
WINDOW 0 0 56 VBottom 2
WINDOW 3 32 56 VTop 2
SYMATTR InstName R4
SYMATTR Value 1k
SYMBOL res 704 -16 R90
WINDOW 0 0 56 VBottom 2
WINDOW 3 32 56 VTop 2
SYMATTR InstName R5
SYMATTR Value 99k
SYMBOL res 944 -16 R90
WINDOW 0 0 56 VBottom 2
WINDOW 3 32 56 VTop 2
SYMATTR InstName R6
SYMATTR Value 10k
SYMBOL cap 608 -144 R90
WINDOW 0 0 32 VBottom 2
WINDOW 3 32 32 VTop 2
SYMATTR InstName C2
SYMATTR Value 56n
SYMBOL res 1072 816 R0
SYMATTR InstName R16
SYMATTR Value 10k
SYMBOL OpAmps\\UniversalOpAmp4 896 800 R0
SYMATTR InstName U1
SYMBOL res 704 96 R90
WINDOW 0 0 56 VBottom 2
WINDOW 3 32 56 VTop 2
SYMATTR InstName R1
SYMATTR Value 10k
SYMBOL res 560 288 R90
WINDOW 0 0 56 VBottom 2
WINDOW 3 32 56 VTop 2
SYMATTR InstName R2
SYMATTR Value 1k
SYMBOL res 704 288 R90
WINDOW 0 0 56 VBottom 2
WINDOW 3 32 56 VTop 2
SYMATTR InstName R7
SYMATTR Value 99k
SYMBOL cap 624 192 R90
WINDOW 0 0 32 VBottom 2
WINDOW 3 32 32 VTop 2
SYMATTR InstName C1
SYMATTR Value 4n7
SYMBOL cap 688 416 R90
WINDOW 0 0 32 VBottom 2
WINDOW 3 32 32 VTop 2
SYMATTR InstName C3
SYMATTR Value 22n
SYMBOL res 416 288 R90
WINDOW 0 0 56 VBottom 2
WINDOW 3 32 56 VTop 2
SYMATTR InstName R8
SYMATTR Value 3k6
SYMBOL res 928 288 R90
WINDOW 0 0 56 VBottom 2
WINDOW 3 32 56 VTop 2
SYMATTR InstName R9
SYMATTR Value 3k6
SYMBOL res 560 576 R90
WINDOW 0 0 56 VBottom 2
WINDOW 3 32 56 VTop 2
SYMATTR InstName R10
SYMATTR Value 50k
SYMBOL res 704 576 R90
WINDOW 0 0 56 VBottom 2
WINDOW 3 32 56 VTop 2
SYMATTR InstName R11
SYMATTR Value 50k
SYMBOL res 416 576 R90
WINDOW 0 0 56 VBottom 2
WINDOW 3 32 56 VTop 2
SYMATTR InstName R12
SYMATTR Value 1k8
SYMBOL res 912 576 R90
WINDOW 0 0 56 VBottom 2
WINDOW 3 32 56 VTop 2
SYMATTR InstName R13
SYMATTR Value 1k8
SYMBOL cap 688 768 R90
WINDOW 0 0 32 VBottom 2
WINDOW 3 32 32 VTop 2
SYMATTR InstName C4
SYMATTR Value 4n7
SYMBOL OpAmps\\UniversalOpAmp4 48 0 R0
SYMATTR InstName U2
SYMBOL res 128 -192 R90
WINDOW 0 0 56 VBottom 2
WINDOW 3 32 56 VTop 2
SYMATTR InstName R14
SYMATTR Value 10k
SYMBOL res -16 -32 R90
WINDOW 0 0 56 VBottom 2
WINDOW 3 32 56 VTop 2
SYMATTR InstName R15
SYMATTR Value 10k
SYMBOL cap -144 -32 R90
WINDOW 0 0 32 VBottom 2
WINDOW 3 32 32 VTop 2
SYMATTR InstName C5
SYMATTR Value 2µ2
TEXT -368 960 Left 2 !.ac lin 1000 1 7000
TEXT 440 64 Left 2 ;Fc=200Hz
TEXT 440 376 Left 2 ;Fc=1.4kHz
TEXT 456 656 Left 2 ;Fc=2kHz
TEXT 312 136 Left 2 ;Low frequency
TEXT 312 472 Left 2 ;Mid-frequency
TEXT 312 712 Left 2 ;High frequency
TEXT -208 168 Left 2 ;Buffer amplifier
RECTANGLE Normal 1040 160 240 -192 2
RECTANGLE Normal 1040 496 240 160 2
RECTANGLE Normal 1040 736 240 496 2
RECTANGLE Normal 208 192 -224 -224 2
