Version 4
SHEET 1 1616 880
WIRE 368 -544 208 -544
WIRE 464 -544 368 -544
WIRE 624 -544 544 -544
WIRE 208 -480 208 -544
WIRE 368 -416 368 -544
WIRE 464 -416 368 -416
WIRE 624 -416 624 -544
WIRE 624 -416 528 -416
WIRE 208 -368 208 -400
WIRE 368 -304 368 -416
WIRE 464 -304 368 -304
WIRE 624 -304 624 -416
WIRE 624 -304 528 -304
WIRE 208 -272 208 -304
WIRE 368 -192 368 -304
WIRE 464 -192 368 -192
WIRE 624 -192 624 -304
WIRE 624 -192 528 -192
WIRE 496 -80 464 -80
WIRE 528 -80 496 -80
WIRE 464 -16 464 -80
WIRE 368 0 368 -192
WIRE 432 0 368 0
WIRE 624 16 624 -192
WIRE 624 16 496 16
WIRE 656 16 624 16
WIRE 768 16 720 16
WIRE 880 16 848 16
WIRE 912 16 880 16
WIRE 1104 16 992 16
WIRE 1136 16 1104 16
WIRE 64 32 -32 32
WIRE 176 32 144 32
WIRE 432 32 240 32
WIRE 880 64 880 16
WIRE 1136 64 1136 16
WIRE 464 96 464 48
WIRE 496 96 464 96
WIRE 528 96 496 96
WIRE -32 112 -32 32
WIRE 880 160 880 128
WIRE 1136 160 1136 144
WIRE -32 256 -32 192
WIRE -16 400 -80 400
WIRE 16 400 -16 400
WIRE -80 480 -80 400
WIRE -80 592 -80 560
WIRE 16 592 -80 592
WIRE -80 624 -80 592
WIRE 16 672 16 592
WIRE -80 816 -80 704
WIRE -16 816 -80 816
WIRE 16 816 -16 816
FLAG 16 672 0
FLAG -16 400 P12V
FLAG -16 816 M12V
FLAG -32 256 0
FLAG 496 -80 P12V
FLAG 496 96 M12V
FLAG 208 -272 0
FLAG 1136 160 0
FLAG 880 160 0
FLAG 1104 16 OUT
SYMBOL OpAmps\\UniversalOpAmp4 464 16 R0
SYMATTR InstName U1
SYMBOL voltage -80 464 R0
WINDOW 123 0 0 Left 0
WINDOW 39 0 0 Left 0
SYMATTR InstName V1
SYMATTR Value 12
SYMBOL voltage -80 608 R0
WINDOW 123 0 0 Left 0
WINDOW 39 0 0 Left 0
SYMATTR InstName V2
SYMATTR Value 12
SYMBOL cap 240 16 R90
WINDOW 0 0 32 VBottom 2
WINDOW 3 32 32 VTop 2
SYMATTR InstName C1
SYMATTR Value 470n
SYMBOL res 160 16 R90
WINDOW 0 0 56 VBottom 2
WINDOW 3 32 56 VTop 2
SYMATTR InstName R1
SYMATTR Value 10k
SYMBOL voltage -32 96 R0
WINDOW 3 30 94 Left 2
WINDOW 123 0 0 Left 0
WINDOW 39 0 0 Left 0
SYMATTR InstName V3
SYMATTR Value SINE(0 1 400)
SYMBOL diode 528 -208 R90
WINDOW 0 0 32 VBottom 2
WINDOW 3 32 32 VTop 2
SYMATTR InstName D1
SYMATTR Value 1N4148
SYMBOL diode 464 -288 R270
WINDOW 0 32 32 VTop 2
WINDOW 3 0 32 VBottom 2
SYMATTR InstName D2
SYMATTR Value 1N4148
SYMBOL cap 528 -432 R90
WINDOW 0 0 32 VBottom 2
WINDOW 3 32 32 VTop 2
SYMATTR InstName C2
SYMATTR Value 100p
SYMBOL res 560 -560 R90
WINDOW 0 0 56 VBottom 2
WINDOW 3 32 56 VTop 2
SYMATTR InstName R2
SYMATTR Value {R}
SYMBOL res 192 -496 R0
SYMATTR InstName R3
SYMATTR Value 1k
SYMBOL cap 720 0 R90
WINDOW 0 0 32 VBottom 2
WINDOW 3 32 32 VTop 2
SYMATTR InstName C3
SYMATTR Value 1µ
SYMBOL res 864 0 R90
WINDOW 0 0 56 VBottom 2
WINDOW 3 32 56 VTop 2
SYMATTR InstName R4
SYMATTR Value 1k
SYMBOL res 1008 0 R90
WINDOW 0 0 56 VBottom 2
WINDOW 3 32 56 VTop 2
SYMATTR InstName R5
SYMATTR Value 9k
SYMBOL res 1120 48 R0
SYMATTR InstName R6
SYMATTR Value 10k
SYMBOL cap 864 64 R0
SYMATTR InstName C4
SYMATTR Value 22n
SYMBOL cap 192 -368 R0
SYMATTR InstName C5
SYMATTR Value 220n
TEXT -114 864 Left 2 !.tran 0.1
TEXT 672 -544 Left 2 !.step param R 1 6k 1k
