Version 4
SHEET 1 880 680
WIRE -208 -160 -304 -160
WIRE -128 -160 -208 -160
WIRE 272 -160 0 -160
WIRE 400 -160 272 -160
WIRE -304 -96 -304 -160
WIRE 400 -96 400 -160
WIRE 336 -48 160 -48
WIRE -304 16 -304 -16
WIRE 0 16 0 -160
WIRE 400 80 400 0
WIRE 496 80 400 80
WIRE 672 80 560 80
WIRE 160 112 160 -48
WIRE 400 144 400 80
WIRE -160 160 -304 160
WIRE 0 160 0 96
WIRE 0 160 -96 160
WIRE 96 160 0 160
WIRE 0 224 0 160
WIRE 672 224 672 80
WIRE -304 272 -304 160
WIRE 160 272 160 208
WIRE 400 272 400 224
WIRE 400 272 160 272
WIRE 400 320 400 272
WIRE 160 336 160 272
WIRE -304 416 -304 352
WIRE 0 416 0 304
WIRE 0 416 -304 416
WIRE 160 416 160 400
WIRE 160 416 0 416
WIRE 400 416 400 400
WIRE 400 416 160 416
WIRE 672 416 672 304
WIRE 672 416 400 416
WIRE 160 448 160 416
FLAG 160 448 0
FLAG -304 16 0
FLAG -208 -160 P9V
FLAG 272 -160 P9V
SYMBOL npn 96 112 R0
SYMATTR InstName Q1
SYMATTR Value BC847A
SYMBOL pnp 336 0 M180
SYMATTR InstName Q2
SYMATTR Value BC857A
SYMBOL res -16 0 R0
SYMATTR InstName R1
SYMATTR Value 470k
SYMBOL res -16 208 R0
SYMATTR InstName R2
SYMATTR Value {R}
SYMBOL cap -96 144 R90
WINDOW 0 0 32 VBottom 2
WINDOW 3 32 32 VTop 2
SYMATTR InstName C1
SYMATTR Value 1µ
SYMBOL cap 144 336 R0
SYMATTR InstName C2
SYMATTR Value 100µ
SYMBOL res 384 304 R0
SYMATTR InstName R3
SYMATTR Value 330
SYMBOL res 384 128 R0
SYMATTR InstName R4
SYMATTR Value 3k3
SYMBOL cap 560 64 R90
WINDOW 0 0 32 VBottom 2
WINDOW 3 32 32 VTop 2
SYMATTR InstName C3
SYMATTR Value 100µ
SYMBOL res 656 208 R0
SYMATTR InstName R5
SYMATTR Value 47k
SYMBOL voltage -304 256 R0
WINDOW 123 0 0 Left 0
WINDOW 39 24 124 Left 2
SYMATTR InstName V1
SYMATTR Value SINE(0 0.001 400)
SYMATTR SpiceLine Rser=1k
SYMBOL voltage -304 -112 R0
WINDOW 123 0 0 Left 0
WINDOW 39 0 0 Left 0
SYMATTR InstName V2
SYMATTR Value 9
TEXT -338 472 Left 2 !.tran 0.01
TEXT -64 536 Left 2 !.step param R 60k 100k 10k
TEXT -56 576 Left 2 ;http://www.circuitdiagram.org/audio_preamplifer_2.html
